/*--------------------------------*- C++ -*----------------------------------*\
| =========                 |                                                 |
| \\      /  F ield         | OpenFOAM: The Open Source CFD Toolbox           |
|  \\    /   O peration     | Version:  v2006                                 |
|   \\  /    A nd           | Website:  www.openfoam.com                      |
|    \\/     M anipulation  |                                                 |
\*---------------------------------------------------------------------------*/
FoamFile
{
    version     2.0;
    format      ascii;
    class       dictionary;
    location    "system";
    object      fvSolution;
}
// * * * * * * * * * * * * * * * * * * * * * * * * * * * * * * * * * * * * * //

solvers
{
    p
    {
        solver GAMG;
	tolerance 1e-05;
	relTol 0.05;
	smoother GaussSeidel;
	nPreSweeps 0;
	nPostSweeps 2;
	nFinestSweeps 2;
	cacheAgglomeration true;
	nCellsInCoarsestLevel 10;
	agglomerator faceAreaPair;
	mergeLevels 1;
    }

    pFinal
    {
        $p;
        relTol          0;
    }

    U
    {
        solver          PBiCGStab;
        preconditioner  DILU;
        tolerance       0;
        relTol          0;
        maxIter         0;
    }
}

PISO
{
    nCorrectors     2;
    nNonOrthogonalCorrectors 0;
    momentumPredictor no;
    pRefCell        0;
    pRefValue       0;
}


// ************************************************************************* //
